! Opt
%output 
xyzfile=True 
end 
%scf 
maxiter 250 
end
%output
Print[P_Hirshfeld] = 1
end
% maxcore
4000
%pal nprocs 96
end
*xyz 1 1
H   -31.66267239 -29.39390954 -13.70040160
C   -21.74935609 -27.11830429 -9.73431512 
C   -21.94393547 -28.07953152 -8.54769320 
C   -23.42077741 -28.46637319 -8.50446998 
C   -24.28700007 -27.20037406 -8.41603065 
C   -23.91094725 -26.18907571 -9.51525433 
C   -24.59693357 -24.83318201 -9.31921791 
O   -21.12400941 -29.20368720 -8.73907762 
O   -23.63384331 -29.31720413 -7.40950801 
O   -25.61790357 -27.63964509 -8.61291280 
O   -22.50695869 -25.95735692 -9.55233411 
O   -25.18045464 -24.43054900 -10.54247211
H   -20.70387886 -26.78787037 -9.78056143 
H   -21.67393707 -27.55948920 -7.61755741 
H   -23.67314362 -28.97848665 -9.44604302 
H   -24.16153067 -26.74599837 -7.42459873 
H   -24.23708718 -26.60529530 -10.47826378
H   -25.36994302 -24.91405775 -8.54488920 
H   -23.83315878 -24.11821130 -8.99290501 
H   -21.41288695 -29.87158397 -8.10139492 
H   -24.58798394 -29.47860419 -7.32070413 
H   -25.50527523 -23.52946413 -10.43881761
C   -21.03848260 -28.68067875 -14.75790394
C   -20.33570831 -29.50121000 -13.66505773
C   -21.10846903 -29.35160266 -12.35497386
C   -21.22943890 -27.86407679 -11.99428215
C   -21.78665140 -27.06405850 -13.18734371
C   -21.67484317 -25.56037245 -12.94043158
O   -20.25521563 -30.84980232 -14.04719344
O   -22.12659577 -27.79025811 -10.90331480
O   -21.08036446 -27.33593871 -14.38974444
O   -22.39410151 -24.87837647 -13.94424631
H   -20.44610720 -28.70812082 -15.68011293
H   -19.32537038 -29.08608906 -13.52846266
H   -20.23876912 -27.48120669 -11.71567232
H   -22.84406155 -27.33765634 -13.30744242
H   -22.08614221 -25.33096155 -11.94902935
H   -20.61357577 -25.28950909 -12.97287567
H   -20.02529840 -31.34766009 -13.24943411
H   -22.14498655 -23.94878718 -13.92461697
C   -24.30224184 -30.93289327 -18.23006733
C   -22.79901324 -31.22578311 -18.11241200
C   -22.30144894 -30.92290354 -16.69515463
C   -22.68195344 -29.47353394 -16.32494926
C   -24.20751154 -29.31294228 -16.46852821
C   -24.62758254 -27.85685716 -16.24689031
O   -22.60102014 -32.58131477 -18.42180365
O   -20.91985539 -31.14724134 -16.71412776
O   -22.33836917 -29.18504688 -14.98385539
O   -24.62470417 -29.64345313 -17.79068900
H   -24.59770966 -30.95179295 -19.28302505
H   -22.25025741 -30.58291956 -18.81640277
H   -22.80008278 -31.59958566 -15.98493296
H   -22.17462392 -28.78141551 -17.01118041
H   -24.68335736 -29.97946839 -15.73722522
H   -21.66999891 -32.77303740 -18.23817993
H   -20.57992632 -31.13250810 -15.80172714
C   -28.08456180 -34.41808791 -17.69769781
C   -26.74856024 -35.13244966 -17.45241496
C   -25.68351903 -34.07247913 -17.14358041
C   -25.67622401 -32.92735086 -18.16847895
C   -27.08817149 -32.48048455 -18.58635897
C   -27.14485854 -31.60902144 -19.85963186
O   -26.91747228 -36.01437753 -16.37741821
O   -24.42936068 -34.70145253 -17.09049804
O   -25.02983065 -31.86427116 -17.47588595
O   -27.97138096 -33.57188190 -18.80988441
O   -27.28160013 -30.24363714 -19.56146631
H   -28.86863142 -35.14317266 -17.95206853
H   -26.46677758 -35.67176267 -18.36842874
H   -25.92772600 -33.63088284 -16.16381992
H   -25.09060259 -33.23822590 -19.04178380
H   -27.46536354 -31.88568380 -17.74081440
H   -26.23376657 -31.71912577 -20.45042274
H   -27.97948301 -31.97260976 -20.46892620
H   -26.04225207 -36.35330277 -16.14694563
H   -23.74892141 -34.05435536 -17.33046810
H   -28.20032155 -30.08059761 -19.30340471
C   -31.29801586 -31.73170210 -14.44358220
C   -31.08850130 -33.20530408 -14.06050884
C   -29.76908279 -33.69159858 -14.65811868
C   -29.73166182 -33.44687148 -16.17820808
C   -30.08990622 -31.97420927 -16.45534341
C   -30.24493982 -31.60150231 -17.93271273
O   -31.09072513 -33.32079267 -12.66321007
O   -29.62000518 -35.05051479 -14.35371746
O   -28.38613290 -33.71750421 -16.52960525
O   -31.31244022 -31.59603804 -15.83692342
O   -29.87134432 -30.24451599 -18.13774814
H   -32.28867065 -31.40501799 -14.10761637
H   -31.91358131 -33.78923956 -14.49621672
H   -28.95027814 -33.10404326 -14.21217234
H   -30.42437226 -34.12509185 -16.69129131
H   -29.26788568 -31.38561154 -16.01744811
H   -29.60066679 -32.21696064 -18.55761525
H   -31.28360824 -31.76845507 -18.22597602
H   -30.75979177 -34.20451024 -12.45053478
H   -28.84133904 -35.38583182 -14.82230443
H   -30.62725156 -29.69081381 -17.91302571
C   -30.27846420 -27.56840552 -11.39888754
C   -31.31651747 -28.66383782 -11.08072043
C   -30.91388846 -29.98068418 -11.75395368
C   -30.71368185 -29.73454605 -13.26312291
C   -29.66527230 -28.61788000 -13.43796882
O   -31.45840022 -28.85096536 -9.69410327 
O   -31.94558993 -30.89393551 -11.48650650
O   -30.28339023 -30.92640638 -13.89641149
O   -30.14738667 -27.45098517 -12.78774301
H   -30.64557068 -26.59147391 -11.05742950
H   -32.27441032 -28.33535820 -11.51252514
H   -29.96232154 -30.33203947 -11.32964824
H   -32.07461972 -29.59128664 -9.58739580 
H   -31.66971911 -31.78338411 -11.76569684
C   -26.59120572 -27.36080341 -7.65571742 
C   -27.48857707 -28.60163583 -7.56502895 
C   -28.07549073 -28.84592859 -8.96273065 
C   -28.78735711 -27.59228537 -9.49011425 
C   -27.93495611 -26.31779665 -9.29388235 
C   -28.74705037 -25.02347344 -9.43566341 
O   -26.69995965 -29.68839654 -7.15429510 
O   -28.91509071 -29.97283727 -8.95546816 
O   -29.00160026 -27.83011708 -10.87855990
O   -27.35730825 -26.23993286 -7.99858262 
O   -29.24856370 -24.81762430 -10.72547397
H   -26.15132749 -27.13092787 -6.67640499 
H   -28.29686085 -28.41087205 -6.84295294 
H   -27.23805379 -29.07291926 -9.63511648 
H   -29.74279587 -27.47170841 -8.96764305 
H   -27.13670598 -26.33747922 -10.05326296
H   -29.60634114 -25.04922142 -8.76191523 
H   -28.09684997 -24.19332978 -9.12736670 
H   -27.18419613 -30.49318708 -7.38732483 
H   -29.84004398 -29.67582043 -8.94118644 
H   -28.52783572 -24.94050707 -11.35598415
C   -27.58044092 -26.59101670 -14.54965872
C   -26.21294097 -26.55155016 -14.85088084
N   -28.09631509 -27.73448925 -15.16011767
N   -25.93906114 -27.65155355 -15.66253301
C   -27.09784266 -28.31026262 -15.87534837
H   -24.57622298 -27.35252596 -17.21869378
H   -23.90958672 -27.39271164 -15.56838687
C   -28.19203744 -25.56276962 -13.85392330
C   -25.40385350 -25.51960047 -14.40825138
C   -29.42685409 -28.25266376 -14.91858146
H   -28.72429249 -28.94274490 -12.97662801
H   -30.16233177 -27.49131102 -15.19329262
H   -29.57796417 -29.14777860 -15.52012635
O   -20.42413579 -30.08598555 -11.37766070
H   -22.12660428 -29.74918652 -12.49694532
H   -20.71860663 -29.80336058 -10.49197159
N   -27.23561824 -29.36029074 -16.68261401
H   -28.15857143 -29.63578484 -16.99638528
C   -26.01557966 -24.50699677 -13.69112964
C   -27.38326421 -24.51686712 -13.43975241
H   -25.41481082 -23.68695845 -13.33591097
H   -24.34624506 -25.47580643 -14.60748246
H   -27.83127187 -23.67659006 -12.93218892
H   -29.24716312 -25.57514402 -13.64379770
H   -26.47490919 -29.57498973 -17.33029084
*
