158
Generated by autodE on: 2022-03-02. E = -285.305414 Ha
H   -31.58161 -29.71054 -13.51139
C   -21.63923 -27.26193  -9.60187
C   -21.96524 -27.97689  -8.27850
C   -23.47091 -28.24481  -8.21907
C   -24.25624 -26.94846  -8.48203
C   -23.77355 -26.31214  -9.79452
C   -24.47172 -24.99978 -10.15772
O   -21.22752 -29.17026  -8.23607
O   -23.77494 -28.78587  -6.95952
O   -25.61359 -27.32987  -8.57342
O   -22.37468 -26.07177  -9.71354
O   -24.94442 -25.12182 -11.48783
H   -20.58253 -26.96120  -9.61499
H   -21.68839 -27.31885  -7.44105
H   -23.72928 -28.95797  -9.01746
H   -24.09806 -26.24946  -7.64957
H   -23.97556 -27.02758 -10.60367
H   -25.30559 -24.80985  -9.47324
H   -23.74092 -24.18688 -10.07484
H   -21.59521 -29.69778  -7.51433
H   -24.74212 -28.80868  -6.85742
H   -25.36723 -24.29951 -11.76242
C   -20.94146 -29.05133 -14.52260
C   -20.24803 -29.87822 -13.42643
C   -21.01244 -29.68676 -12.12029
C   -21.10231 -28.19139 -11.78073
C   -21.70233 -27.41559 -12.96876
C   -21.66141 -25.88241 -12.80740
O   -20.20835 -31.22716 -13.81438
O   -21.92904 -28.15256 -10.62976
O   -20.97992 -27.70192 -14.15938
O   -22.77653 -25.24751 -13.36606
H   -20.33214 -29.07881 -15.43489
H   -19.22492 -29.49097 -13.29837
H   -20.09941 -27.80617 -11.54913
H   -22.74632 -27.74523 -13.07877
H   -21.55295 -25.62146 -11.75031
H   -20.79013 -25.52130 -13.35931
H   -20.03663 -31.74168 -13.01420
H   -23.54207 -25.36147 -12.77596
C   -24.15521 -30.63698 -18.31638
C   -22.68637 -31.07495 -18.15403
C   -22.31026 -31.04948 -16.67208
C   -22.60608 -29.64311 -16.12176
C   -24.11135 -29.36949 -16.31177
C   -24.48970 -27.98392 -15.79773
O   -22.53978 -32.37046 -18.68525
O   -20.95496 -31.41804 -16.58156
O   -22.22521 -29.56530 -14.75775
O   -24.38339 -29.39718 -17.71300
H   -24.38538 -30.49430 -19.37851
H   -22.03846 -30.36869 -18.69431
H   -22.94045 -31.77031 -16.13032
H   -22.04726 -28.89812 -16.70501
H   -24.70981 -30.13518 -15.80689
H   -21.67368 -32.68530 -18.39002
H   -20.70139 -31.45094 -15.64405
C   -28.25010 -33.93027 -18.16273
C   -26.92506 -34.69013 -18.30996
C   -25.78963 -33.76573 -17.87008
C   -25.83357 -32.38957 -18.55714
C   -27.26380 -31.81398 -18.57576
C   -27.49368 -30.65719 -19.56111
O   -26.96789 -35.85214 -17.52505
O   -24.56933 -34.41721 -18.12308
O   -24.97318 -31.61512 -17.74074
O   -28.21905 -32.79382 -18.97935
O   -26.58081 -29.60445 -19.47785
H   -29.08430 -34.54377 -18.53466
H   -26.79231 -34.94420 -19.37315
H   -25.90430 -33.57945 -16.79007
H   -25.44012 -32.47340 -19.57897
H   -27.47369 -31.47682 -17.55141
H   -27.42433 -31.04809 -20.58056
H   -28.51961 -30.29739 -19.39603
H   -26.05658 -36.16760 -17.45796
H   -23.87674 -33.73773 -18.20493
H   -26.43953 -29.36018 -18.55289
C   -31.16088 -32.04472 -14.22222
C   -30.73747 -33.49679 -13.95946
C   -29.48237 -33.77495 -14.78035
C   -29.71511 -33.47399 -16.27280
C   -30.30555 -32.05862 -16.43950
C   -30.82614 -31.72135 -17.83740
O   -30.51560 -33.67042 -12.58310
O   -29.11166 -35.11665 -14.59030
O   -28.41493 -33.62241 -16.81463
O   -31.42173 -31.86496 -15.58017
O   -30.71567 -30.32290 -18.00203
H   -32.11533 -31.84089 -13.72207
H   -31.54506 -34.16240 -14.30136
H   -28.68163 -33.10447 -14.43066
H   -30.40020 -34.22023 -16.70267
H   -29.51425 -31.34084 -16.18774
H   -30.24106 -32.23985 -18.60264
H   -31.87442 -32.04053 -17.88804
H   -29.98879 -34.47507 -12.48545
H   -28.44177 -35.32917 -15.25612
H   -31.15300 -30.07117 -18.82222
C   -30.35948 -27.84261 -11.23249
C   -31.31769 -29.01569 -10.94145
C   -30.76732 -30.29100 -11.58223
C   -30.61580 -30.02291 -13.09116
C   -29.61641 -28.86365 -13.24768
O   -31.46710 -29.17409  -9.55161
O   -31.65351 -31.33808 -11.27036
O   -30.15251 -31.17978 -13.76168
O   -30.14799 -27.70921 -12.60468
H   -30.81897 -26.89910 -10.91584
H   -32.29255 -28.78518 -11.39709
H   -29.77097 -30.50245 -11.16592
H   -31.91517 -30.02367  -9.42528
H   -31.27092 -32.17347 -11.58633
C   -26.55421 -26.68577  -7.77201
C   -27.52412 -27.75374  -7.25818
C   -28.20599 -28.39728  -8.46666
C   -28.86264 -27.34653  -9.37653
C   -27.92401 -26.14570  -9.63937
C   -28.65961 -24.88598 -10.13012
O   -26.79346 -28.70336  -6.52386
O   -29.13112 -29.34040  -7.98822
O   -29.12447 -28.03899 -10.58989
O   -27.25281 -25.69324  -8.46682
O   -29.46576 -25.06508 -11.25237
H   -26.07760 -26.16823  -6.92777
H   -28.28379 -27.27484  -6.62236
H   -27.43085 -28.90427  -9.06328
H   -29.79704 -27.00109  -8.91663
H   -27.18609 -26.47469 -10.38698
H   -29.31728 -24.53833  -9.32874
H   -27.89992 -24.11028 -10.30538
H   -27.35665 -29.48653  -6.45365
H   -29.90855 -29.34442  -8.57646
H   -28.94803 -25.44528 -11.97608
C   -27.68012 -26.64156 -14.71308
C   -26.31061 -26.54195 -15.01227
N   -28.04649 -27.95092 -14.93106
N   -25.87177 -27.79233 -15.40715
C   -26.91653 -28.68583 -15.31137
H   -24.26335 -27.26370 -16.59302
H   -23.85570 -27.75641 -14.93480
C   -28.40646 -25.54776 -14.28697
C   -25.63733 -25.34410 -14.87018
C   -29.35980 -28.48684 -14.71741
H   -28.66856 -29.15040 -12.77284
H   -30.09945 -27.73840 -15.01099
H   -29.49528 -29.36921 -15.34600
O   -20.35502 -30.40138 -11.10363
H   -22.03739 -30.06655 -12.25487
H   -20.69039 -30.08601 -10.24929
N   -26.82519 -29.93566 -15.52350
H   -27.68234 -30.44616 -15.34973
C   -26.36879 -24.24927 -14.42458
C   -27.72337 -24.34487 -14.14423
H   -25.86556 -23.30145 -14.30578
H   -24.58386 -25.25323 -15.07373
H   -28.26442 -23.47280 -13.80859
H   -29.46053 -25.62493 -14.07347
