! Opt
%output 
xyzfile=True 
end 
%scf 
maxiter 250 
end
%output
Print[P_Hirshfeld] = 1
end
% maxcore
4000
%pal nprocs 96
end
*xyz 0 1
H   -31.58161265 -29.71054099 -13.51139351
C   -21.63923467 -27.26192678 -9.60186941 
C   -21.96524456 -27.97689146 -8.27850254 
C   -23.47090737 -28.24480615 -8.21906515 
C   -24.25624357 -26.94845882 -8.48202611 
C   -23.77355282 -26.31213654 -9.79451723 
C   -24.47172176 -24.99978346 -10.15771932
O   -21.22751924 -29.17025999 -8.23606672 
O   -23.77493502 -28.78587410 -6.95952083 
O   -25.61358679 -27.32987349 -8.57342383 
O   -22.37467776 -26.07177473 -9.71353628 
O   -24.94441743 -25.12182169 -11.48782592
H   -20.58252791 -26.96119742 -9.61498601 
H   -21.68838625 -27.31884820 -7.44104957 
H   -23.72927834 -28.95797358 -9.01745789 
H   -24.09806174 -26.24945773 -7.64956722 
H   -23.97556003 -27.02758195 -10.60367031
H   -25.30558681 -24.80985284 -9.47324360 
H   -23.74091874 -24.18688026 -10.07483545
H   -21.59520964 -29.69778430 -7.51432794 
H   -24.74211926 -28.80868228 -6.85742451 
H   -25.36723408 -24.29951242 -11.76241833
C   -20.94146449 -29.05132579 -14.52260393
C   -20.24802982 -29.87822418 -13.42643482
C   -21.01244015 -29.68675715 -12.12028522
C   -21.10231430 -28.19138834 -11.78072997
C   -21.70232904 -27.41558681 -12.96876259
C   -21.66140766 -25.88241073 -12.80739624
O   -20.20835131 -31.22716238 -13.81437991
O   -21.92904355 -28.15256148 -10.62975961
O   -20.97991695 -27.70192363 -14.15937767
O   -22.77653148 -25.24751226 -13.36606348
H   -20.33214072 -29.07881304 -15.43488953
H   -19.22491807 -29.49097279 -13.29837400
H   -20.09941480 -27.80617072 -11.54912819
H   -22.74632211 -27.74523184 -13.07876986
H   -21.55295222 -25.62145610 -11.75030873
H   -20.79012911 -25.52129714 -13.35930845
H   -20.03662558 -31.74168026 -13.01419977
H   -23.54207469 -25.36146652 -12.77596182
C   -24.15520685 -30.63698454 -18.31637789
C   -22.68637390 -31.07495247 -18.15403303
C   -22.31026040 -31.04948029 -16.67207675
C   -22.60607553 -29.64311268 -16.12175569
C   -24.11135390 -29.36948862 -16.31177040
C   -24.48969976 -27.98391597 -15.79772865
O   -22.53977925 -32.37046100 -18.68524824
O   -20.95496429 -31.41803719 -16.58155759
O   -22.22520790 -29.56530163 -14.75774504
O   -24.38339124 -29.39717579 -17.71300226
H   -24.38537882 -30.49429981 -19.37850811
H   -22.03846227 -30.36868887 -18.69430737
H   -22.94044858 -31.77030854 -16.13032076
H   -22.04725750 -28.89811598 -16.70501015
H   -24.70980679 -30.13518251 -15.80688601
H   -21.67367771 -32.68530307 -18.39002176
H   -20.70139390 -31.45093791 -15.64404953
C   -28.25009925 -33.93027448 -18.16273151
C   -26.92505776 -34.69013381 -18.30996432
C   -25.78962535 -33.76572560 -17.87007587
C   -25.83356574 -32.38956802 -18.55714392
C   -27.26380310 -31.81397752 -18.57575789
C   -27.49368448 -30.65719221 -19.56110636
O   -26.96788797 -35.85213876 -17.52505429
O   -24.56932566 -34.41721469 -18.12307742
O   -24.97317941 -31.61512087 -17.74074435
O   -28.21905021 -32.79381847 -18.97934768
O   -26.58080619 -29.60444739 -19.47785203
H   -29.08430101 -34.54377269 -18.53465782
H   -26.79231464 -34.94419531 -19.37314808
H   -25.90429996 -33.57944888 -16.79007491
H   -25.44011647 -32.47339710 -19.57896760
H   -27.47368504 -31.47682273 -17.55140695
H   -27.42432615 -31.04808715 -20.58056317
H   -28.51960876 -30.29738818 -19.39603364
H   -26.05657575 -36.16760357 -17.45795977
H   -23.87673729 -33.73772531 -18.20493385
H   -26.43952998 -29.36017533 -18.55288825
C   -31.16088490 -32.04472196 -14.22222129
C   -30.73747061 -33.49679500 -13.95945717
C   -29.48236616 -33.77494803 -14.78034779
C   -29.71511346 -33.47398689 -16.27279968
C   -30.30555471 -32.05861687 -16.43950114
C   -30.82614024 -31.72134745 -17.83740469
O   -30.51559888 -33.67042003 -12.58310296
O   -29.11166230 -35.11664776 -14.59030325
O   -28.41492538 -33.62241433 -16.81462975
O   -31.42172720 -31.86496355 -15.58016827
O   -30.71566671 -30.32290030 -18.00202688
H   -32.11532703 -31.84089390 -13.72207467
H   -31.54505980 -34.16240263 -14.30136278
H   -28.68162780 -33.10446582 -14.43066244
H   -30.40020408 -34.22023297 -16.70267455
H   -29.51425087 -31.34083933 -16.18773750
H   -30.24106075 -32.23985174 -18.60264390
H   -31.87442499 -32.04052811 -17.88803514
H   -29.98879138 -34.47507461 -12.48545218
H   -28.44176973 -35.32917252 -15.25611837
H   -31.15299818 -30.07117123 -18.82221595
C   -30.35948232 -27.84260779 -11.23249135
C   -31.31768612 -29.01569358 -10.94145279
C   -30.76731505 -30.29100142 -11.58222571
C   -30.61580303 -30.02290552 -13.09116199
C   -29.61640609 -28.86364623 -13.24767856
O   -31.46709533 -29.17409419 -9.55160649 
O   -31.65351087 -31.33808396 -11.27036370
O   -30.15251110 -31.17977665 -13.76167885
O   -30.14799254 -27.70921295 -12.60467740
H   -30.81897143 -26.89909526 -10.91583603
H   -32.29254590 -28.78518142 -11.39708591
H   -29.77097440 -30.50244825 -11.16592471
H   -31.91516932 -30.02366906 -9.42528109 
H   -31.27091909 -32.17347413 -11.58633367
C   -26.55420614 -26.68577450 -7.77200786 
C   -27.52412336 -27.75374189 -7.25817875 
C   -28.20599429 -28.39728470 -8.46666204 
C   -28.86264249 -27.34652512 -9.37653431 
C   -27.92400662 -26.14569745 -9.63937484 
C   -28.65961204 -24.88598314 -10.13012207
O   -26.79346256 -28.70335505 -6.52385683 
O   -29.13112107 -29.34039834 -7.98822387 
O   -29.12447372 -28.03899217 -10.58989307
O   -27.25281057 -25.69324377 -8.46682451 
O   -29.46576177 -25.06508205 -11.25237259
H   -26.07760366 -26.16822680 -6.92776879 
H   -28.28378938 -27.27483713 -6.62235605 
H   -27.43085291 -28.90426668 -9.06327552 
H   -29.79703550 -27.00108852 -8.91662592 
H   -27.18608953 -26.47468535 -10.38698327
H   -29.31728003 -24.53833421 -9.32874317 
H   -27.89991590 -24.11028011 -10.30537844
H   -27.35665093 -29.48653222 -6.45364504 
H   -29.90855370 -29.34442078 -8.57645579 
H   -28.94802853 -25.44528430 -11.97607770
C   -27.68012364 -26.64155798 -14.71307909
C   -26.31061063 -26.54194886 -15.01227218
N   -28.04649499 -27.95092214 -14.93106350
N   -25.87177008 -27.79232568 -15.40714894
C   -26.91653342 -28.68582730 -15.31136991
H   -24.26335396 -27.26369852 -16.59302002
H   -23.85569935 -27.75641296 -14.93480178
C   -28.40645652 -25.54776294 -14.28696798
C   -25.63732766 -25.34410262 -14.87017908
C   -29.35979932 -28.48684467 -14.71740947
H   -28.66855737 -29.15039832 -12.77283843
H   -30.09945078 -27.73839738 -15.01099436
H   -29.49528142 -29.36921072 -15.34600186
O   -20.35501655 -30.40138360 -11.10362580
H   -22.03739455 -30.06654977 -12.25487030
H   -20.69038994 -30.08601380 -10.24929456
N   -26.82518523 -29.93565947 -15.52350455
H   -27.68233687 -30.44615873 -15.34973343
C   -26.36878933 -24.24926815 -14.42457654
C   -27.72337262 -24.34486542 -14.14422523
H   -25.86556091 -23.30144646 -14.30578139
H   -24.58386258 -25.25322523 -15.07372890
H   -28.26441956 -23.47280229 -13.80859007
H   -29.46052898 -25.62493202 -14.07347326
*
