! Opt CPCM(Acetonitrile)
%cpcm
surfacetype vdw_gaussian
end
%geom MaxIter 100 end
%output 
xyzfile=True 
end 
%scf 
maxiter 250 
end
%output
Print[P_Hirshfeld] = 1
end
% maxcore
4000
%pal nprocs 96
end
*xyz -1 1
C    1.02166961   0.93745326  -0.00709148 
C   -0.28620127   1.35971521  -0.00850892 
C   -1.29940815   0.41907900  -0.00131937 
C   -1.02655632  -0.93626016   0.00716737 
C    0.28147795  -1.35778288   0.00856012 
C    1.38221098  -0.44572817   0.00144688 
O    2.59321486  -0.83617358   0.00266917 
F   -2.62161660   0.84539677  -0.00280276 
H    1.82412492   1.66551978  -0.01253444 
H   -0.53338773   2.41324270  -0.01500265 
H   -1.84262894  -1.64698831   0.01253041 
H    0.50700066  -2.41747362   0.01508567 
*
