! Opt CPCM(Acetonitrile)
%cpcm
surfacetype vdw_gaussian
end
%geom MaxIter 100 end
%output 
xyzfile=True 
end 
%scf 
maxiter 250 
end
%output
Print[P_Hirshfeld] = 1
end
% maxcore
4000
%pal nprocs 96
end
*xyz 0 1
C    0.52637560  -1.10786374   0.05366293 
C   -0.77920726  -1.14904784   0.50959812 
C   -1.51928213   0.01690062   0.51559591 
C   -0.99424906   1.22046339   0.08108487 
C    0.30963062   1.25356339  -0.37203579 
C    1.07958850   0.09095600  -0.38903773 
O    2.35180331   0.17798056  -0.84304122 
F   -2.80680545  -0.01969072   0.96370181 
H    1.11539992  -2.01341386   0.04455611 
H   -1.22061151  -2.06969213   0.85617013 
H   -1.60189661   2.11080812   0.09962379 
H    0.75139834   2.17365187  -0.71850634 
H    2.78775572  -0.68451566  -0.80137259 
*
