13
Coordinates from ORCA-job p-fluorophenol_opt_orca E -404.113966205515
  C       0.526376     -1.107864      0.053663
  C      -0.779207     -1.149048      0.509598
  C      -1.519282      0.016901      0.515596
  C      -0.994249      1.220463      0.081085
  C       0.309631      1.253563     -0.372036
  C       1.079589      0.090956     -0.389038
  O       2.351803      0.177981     -0.843041
  F      -2.806805     -0.019691      0.963702
  H       1.115400     -2.013414      0.044556
  H      -1.220612     -2.069692      0.856170
  H      -1.601897      2.110808      0.099624
  H       0.751398      2.173652     -0.718506
  H       2.787756     -0.684516     -0.801373
13
Coordinates from ORCA-job p-fluorophenol_opt_orca E -404.115196516886
  C       0.526918     -1.109846      0.053436
  C      -0.783947     -1.147951      0.510379
  C      -1.520474      0.016435      0.516057
  C      -0.995391      1.216959      0.081588
  C       0.313038      1.249469     -0.372885
  C       1.080280      0.087015     -0.388847
  O       2.347077      0.174554     -0.839941
  F      -2.786765     -0.016784      0.957535
  H       1.118563     -2.016995      0.044327
  H      -1.228106     -2.070506      0.858703
  H      -1.604160      2.110826      0.100619
  H       0.755619      2.173581     -0.719945
  H       2.777248     -0.666655     -0.801028
13
Coordinates from ORCA-job p-fluorophenol_opt_orca E -404.115281041142
  C       0.526911     -1.109789      0.053482
  C      -0.785496     -1.146947      0.510742
  C      -1.523899      0.016394      0.517325
  C      -0.996231      1.216190      0.082037
  C       0.313294      1.248859     -0.372836
  C       1.080311      0.086498     -0.388631
  O       2.345797      0.173748     -0.839185
  F      -2.782775     -0.015924      0.955967
  H       1.119594     -2.016228      0.043762
  H      -1.228836     -2.070020      0.858753
  H      -1.604139      2.110633      0.100616
  H       0.754211      2.173773     -0.719619
  H       2.781158     -0.667088     -0.802414
13
Coordinates from ORCA-job p-fluorophenol_opt_orca E -404.115290894231
  C       0.526668     -1.109870      0.053695
  C      -0.785826     -1.146418      0.510774
  C      -1.526039      0.016325      0.518035
  C      -0.995892      1.215688      0.082058
  C       0.313472      1.248508     -0.372752
  C       1.080595      0.086090     -0.388572
  O       2.345944      0.173320     -0.839112
  F      -2.784044     -0.015497      0.956186
  H       1.119630     -2.015927      0.043810
  H      -1.228345     -2.069941      0.858540
  H      -1.602933      2.110651      0.100175
  H       0.753051      2.173948     -0.719225
  H       2.783617     -0.666776     -0.803611
13
Coordinates from ORCA-job p-fluorophenol_opt_orca E -404.115292710772
  C       0.526445     -1.109907      0.053869
  C      -0.785877     -1.146030      0.510730
  C      -1.526933      0.016286      0.518323
  C      -0.995479      1.215249      0.082015
  C       0.313588      1.248289     -0.372689
  C       1.080828      0.085832     -0.388528
  O       2.346064      0.173101     -0.839053
  F      -2.785056     -0.015247      0.956345
  H       1.119500     -2.015866      0.043985
  H      -1.227871     -2.069934      0.858375
  H      -1.602032      2.110628      0.099845
  H       0.752120      2.174283     -0.718905
  H       2.784603     -0.666584     -0.804313
13
Coordinates from ORCA-job p-fluorophenol_opt_orca E -404.115292824864
  C       0.526401     -1.109896      0.053915
  C      -0.785888     -1.145956      0.510721
  C      -1.526957      0.016279      0.518312
  C      -0.995387      1.215147      0.082002
  C       0.313626      1.248264     -0.372680
  C       1.080914      0.085790     -0.388523
  O       2.346106      0.173054     -0.838994
  F      -2.785182     -0.015193      0.956335
  H       1.119457     -2.015863      0.044066
  H      -1.227720     -2.069967      0.858335
  H      -1.601832      2.110623      0.099768
  H       0.751803      2.174464     -0.718804
  H       2.784559     -0.666644     -0.804451
