12
Generated by autodE on: 2022-03-02. E = -23.973764 Ha
C     1.02167   0.93745  -0.00709
C    -0.28620   1.35972  -0.00851
C    -1.29941   0.41908  -0.00132
C    -1.02656  -0.93626   0.00717
C     0.28148  -1.35778   0.00856
C     1.38221  -0.44573   0.00145
O     2.59321  -0.83617   0.00267
F    -2.62162   0.84540  -0.00280
H     1.82412   1.66552  -0.01253
H    -0.53339   2.41324  -0.01500
H    -1.84263  -1.64699   0.01253
H     0.50700  -2.41747   0.01509
